Circuit: * D:\Education\Phys3330\Spring2013\FinalProject\HapticGlove\Schematics\FlexOpAmp.asc

Direct Newton iteration failed to find .op point.  (Use ".option noopiter" to skip.)
Starting Gmin stepping
Gmin = 10
Gmin = 1.07374
vernier = 0.5
vernier = 0.25
vernier = 0.125
vernier = 0.0625
Gmin = 1.02494
vernier = 0.03125
vernier = 0.015625
vernier = 0.0078125
Gmin = 1.02087
vernier = 0.00390625
vernier = 0.00520833
Gmin = 1.01063
vernier = 0.00260417
vernier = 0.00130208
Gmin = 1.00866
vernier = 0.00173611
vernier = 0.000868055
vernier = 0.00115741
Gmin = 1.00666
vernier = 0.000578703
vernier = 0.000771604
Gmin = 1.00535
vernier = 0.000578703
vernier = 0.000771604
vernier = 0.000578703
vernier = 0.000434027
Gmin = 1.00481
vernier = 0.000578703
vernier = 0.000434027
Gmin = 0
Gmin stepping failed

Starting source stepping with srcstepmethod=0
Source Step = 3.0303%
Source Step = 33.3333%
Source Step = 63.6364%
Source Step = 93.9394%
Source stepping succeeded in finding the operating point.


Date: Fri Apr 12 13:54:49 2013
Total elapsed time: 2.078 seconds.

tnom = 27
temp = 27
method = modified trap
totiter = 50938
traniter = 45035
tranpoints = 9781
accept = 7242
rejected = 2539
matrix size = 76
fillins = 133
solver = Normal
Thread vector: 15.8/11.7[2] 6.6/5.8[2] 4.1/4.1[1] 3.2/3.3[1]  2592/500
Matrix Compiler1: 9.93 KB object code size  8.3/6.1/[3.4]
Matrix Compiler2: 8.25 KB object code size  4.6/6.1/[3.1]


